-----BEGIN CERTIFICATE-----
MIIDKzCCApSgAwIBAgIJALrkS0pu9xMYMA0GCSqGSIb3DQEBBQUAMG0xCzAJBgNVBAYTAlRXMQ8wDQ
YDVQQIEwZUYWl3YW4xDzANBgNVBAcTBlRhaXBpZTEPMA0GA1UEChMGRC1MSU5LMRMwEQYDVQQLEwpE
SFBEIERlcHQuMRYwFAYDVQQDEw13d3cuZGxpbmsuY29tMB4XDTE0MDEwMTAwMDAxMVoXDTE4MTIzMT
AwMDAxMVowbTELMAkGA1UEBhMCVFcxDzANBgNVBAgTBlRhaXdhbjEPMA0GA1UEBxMGVGFpcGllMQ8w
DQYDVQQKEwZELUxJTksxEzARBgNVBAsTCkRIUEQgRGVwdC4xFjAUBgNVBAMTDXd3dy5kbGluay5jb2
0wgZ8wDQYJKoZIhvcNAQEBBQADgY0AMIGJAoGBAKwOGKppNA0vmsirzkQG0K/vEr1d9otY1BIpkZMe
cgYvftq9uBnfy+Y7/5DJwY10txaacMelFGGtCLKvIITl2ehY3Uzl9ecbI5+t4uszMDidUMMEpdXG1B
M7ZW/dzT8sH7xt+TFzTQgveSNvGpb4XprwiWZkKMNvPNUG512+zZ4JAgMBAAGjgdIwgc8wHQYDVR0O
BBYEFG5Se1PMGey1bP+jqKTWtg6DOh6fMIGfBgNVHSMEgZcwgZSAFG5Se1PMGey1bP+jqKTWtg6DOh
6foXGkbzBtMQswCQYDVQQGEwJUVzEPMA0GA1UECBMGVGFpd2FuMQ8wDQYDVQQHEwZUYWlwaWUxDzAN
BgNVBAoTBkQtTElOSzETMBEGA1UECxMKREhQRCBEZXB0LjEWMBQGA1UEAxMNd3d3LmRsaW5rLmNvbY
IJALrkS0pu9xMYMAwGA1UdEwQFMAMBAf8wDQYJKoZIhvcNAQEFBQADgYEAMLfoNcW9Dn7mpw/MT3DZ
NLkU3YAqhtekFI0cwIMPkf2hVTuArqrgBim0cAvZhhDbSTjUg+/upgz2EWKQ1ungjj0RS140Q83Crb
SIQhEuimyEDq9KOOA26kmX9OyUiWzjYv3qsC6sLpWS59c3Q1IqdgxKS1te5IyL9GSKXAucncU=
-----END CERTIFICATE-----
