-----BEGIN CERTIFICATE-----
MIIDKzCCApSgAwIBAgIJAMRFzc3eJFoqMA0GCSqGSIb3DQEBBQUAMG0xCzAJBgNVBAYTAlRXMQ8wDQ
YDVQQIEwZUYWl3YW4xDzANBgNVBAcTBlRhaXBpZTEPMA0GA1UEChMGRC1MSU5LMRMwEQYDVQQLEwpE
SFBEIERlcHQuMRYwFAYDVQQDEw13d3cuZGxpbmsuY29tMB4XDTEzMDEyMjAyMDAxNVoXDTE4MDEyMT
AyMDAxNVowbTELMAkGA1UEBhMCVFcxDzANBgNVBAgTBlRhaXdhbjEPMA0GA1UEBxMGVGFpcGllMQ8w
DQYDVQQKEwZELUxJTksxEzARBgNVBAsTCkRIUEQgRGVwdC4xFjAUBgNVBAMTDXd3dy5kbGluay5jb2
0wgZ8wDQYJKoZIhvcNAQEBBQADgY0AMIGJAoGBAMeUKHrg9AzueWIGoQcO9nags7vQSbKe2MZyVCOY
tE1PYjga/3OG7n1fRrCxcavsi189G0jQPIDPSmm6sFqGPbadjqEJoxFDwAs/MT3D8sNK51Ztw+UwDO
S6jxQ4OtuSwNmPOaG8mwNFp9gUsGkEjYrqlWjlnBL42L++DOrpfc8VAgMBAAGjgdIwgc8wHQYDVR0O
BBYEFJLl4vwTv5jMtWSOqq1zH1BcDhLNMIGfBgNVHSMEgZcwgZSAFJLl4vwTv5jMtWSOqq1zH1BcDh
LNoXGkbzBtMQswCQYDVQQGEwJUVzEPMA0GA1UECBMGVGFpd2FuMQ8wDQYDVQQHEwZUYWlwaWUxDzAN
BgNVBAoTBkQtTElOSzETMBEGA1UECxMKREhQRCBEZXB0LjEWMBQGA1UEAxMNd3d3LmRsaW5rLmNvbY
IJAMRFzc3eJFoqMAwGA1UdEwQFMAMBAf8wDQYJKoZIhvcNAQEFBQADgYEAS2M4tjiBr9BfknJsC4ZT
MHZC/I8ZVFc4uwgy4iAyRSRv5ZgGwTmD01Ncn0VSJ4HqHNm02qUVEZ+fGU+YU4CPa4q0WERWQZJNoP
sdm9JRKWioa3pn4vXFgXmxj1xNTzIda58P9vy9j/jRHGJ4Pb7uM2Onaw2OpzjBBptbaVhpUy8=
-----END CERTIFICATE-----
