-----BEGIN CERTIFICATE-----
MIIEsTCCA5mgAwIBAgIFALkF5ucwDQYJKoZIhvcNAQEFBQAwgZkxCzAJBgNVBAYTAlVTMRAwDgYDVQ
QIEwdVbmtub3duMRAwDgYDVQQHEwdVbmtub3duMRAwDgYDVQQKEwdVbmtub3duMRAwDgYDVQQLEwdV
bmtub3duMRswGQYDVQQDExJ4ZW4uYWxtbzd0YXJpZi5jb20xJTAjBgkqhkiG9w0BCQEWFnNzbEB4ZW
4uYWxtbzd0YXJpZi5jb20wHhcNMTQwODI2MTcxNDM4WhcNMTUwODI2MTcxNDM4WjCBmTELMAkGA1UE
BhMCVVMxEDAOBgNVBAgTB1Vua25vd24xEDAOBgNVBAcTB1Vua25vd24xEDAOBgNVBAoTB1Vua25vd2
4xEDAOBgNVBAsTB1Vua25vd24xGzAZBgNVBAMTEnhlbi5hbG1vN3RhcmlmLmNvbTElMCMGCSqGSIb3
DQEJARYWc3NsQHhlbi5hbG1vN3RhcmlmLmNvbTCCASIwDQYJKoZIhvcNAQEBBQADggEPADCCAQoCgg
EBAMxuXqgIxzjBICLHeIGPZGZC2un7mYfh1p/Ke2ttBykoO/1WNE7fkrCnhFpXcWIzjl2vbg6legUu
kpZ7j3WA75woTUJim83o0Y2pp9PEvtQMTwCJKpZnVIHD/pdZy8B9mLaXgfh2z45fhmjXdgzawA78IG
M8Ynur8XtuiZqKdcCicD2XmJWxoIiMK9DrffDPBC27Qq9cR1LXWeDEXuN3oSvMD1pXCdeYuNxBxpDz
OvkoW3pC7GeA4SkRJ8qFnntDzolsrUVHRAMHezlDx3ABP8lgXb2DudbSmnQbBwFIwCzLHsmah6ORpy
nVcNHFWgqSEAAYoXYKyQmo+vAqS5cZcsECAwEAAaOB/TCB+jAdBgNVHQ4EFgQUrD/MT3DFnWxkJfXH
4ClWmbwtRs4wgcoGA1UdIwSBwjCBv4AUrD/MT3DFnWxkJfXH4ClWmbwtRs6hgZ+kgZwwgZkxCzAJBg
NVBAYTAlVTMRAwDgYDVQQIEwdVbmtub3duMRAwDgYDVQQHEwdVbmtub3duMRAwDgYDVQQKEwdVbmtu
b3duMRAwDgYDVQQLEwdVbmtub3duMRswGQYDVQQDExJ4ZW4uYWxtbzd0YXJpZi5jb20xJTAjBgkqhk
iG9w0BCQEWFnNzbEB4ZW4uYWxtbzd0YXJpZi5jb22CBQC5BebnMAwGA1UdEwQFMAMBAf8wDQYJKoZI
hvcNAQEFBQADggEBAE8xDSc4hTSSJ2Pe6cHoFkkl5Y3RfW173QhgAih4QbLNaELB++LCW8RABoj7pi
DWNmHKS3bUX9V3K//BAiRgV6nuPRsZPWYTnnvdqVj6OsTJSl/aAF2y64JiCaCdU4S4jZXzdNKZFx6b
yvd8ALEnQBHqMGc91cjgsjBZIeHZiW6wxZRWTmBbJZCjfZleWiw9hbnv4I80MpBTo3Hr6dwsoPEFxv
ea47fL196Ou7tkwYlaGnw7AqG+a0GT/MWK/19IAEzvrSYKfXqAoOtPP62o806AMeA13R49Eq6XCeWW
AGlVctyn+rcofpYEzKpQ0vq/11L8O20SjkRtljSxMbX9XqU=
-----END CERTIFICATE-----
