-----BEGIN CERTIFICATE-----
MIIELTCCAxWgAwIBAgIJAO+y8RiO2FynMA0GCSqGSIb3DQEBBQUAMGwxCzAJBgNVBAYTAkFVMRMwEQ
YDVQQIEwpTb21lLVN0YXRlMRAwDgYDVQQHEwdJTVBFUklBMR8wHQYDVQQKExZDT01QVVRFUlMgSE9V
U0UgUy5SLkwuMRUwEwYDVQQDEww4Mi4xMDYuODIuNDIwHhcNMTMxMjE2MTYyNzI5WhcNMjMxMjE0MT
YyNzI5WjBsMQswCQYDVQQGEwJBVTETMBEGA1UECBMKU29tZS1TdGF0ZTEQMA4GA1UEBxMHSU1QRVJJ
QTEfMB0GA1UEChMWQ09NUFVURVJTIEhPVVNFIFMuUi5MLjEVMBMGA1UEAxMMODIuMTA2LjgyLjQyMI
IBIjANBgkqhkiG9w0BAQEFAAOCAQ8AMIIBCgKCAQEA0adApz6VAU3esl4Qw/kYEfCqHwBzyAj5AbVN
Aq9in+Lhz/XgR4AHXGStUgZ+YPe92hp/4Lp37lM+hC9wwDDFL48uipzPO6UwBwoBrKG4Q0ZNrj3NxW
75ENRB0+/CuDbimJb/MT3D2vwEKLWuw6cT/9R3io+MLY0m/3cL5Snlj3Z026gM9VT2cpMG1K4TH44m
FBafz9tZZ10IfqRG+4smt7dYWUHoopnyA6sr8fTUaW3AW68fZW+fMUHl/APm5aj/Wssq5M76aav0pK
Zi2My2GecJT+2YHTvwOr8BDPUnruLNTlACM8MRKyOKh1xfjRG9mT31ndEoiTZLLCPh5ASFtwIDAQAB
o4HRMIHOMB0GA1UdDgQWBBSwQ3L1Aq/rcH57h/sos4PfD+4yPjCBngYDVR0jBIGWMIGTgBSwQ3L1Aq
/rcH57h/sos4PfD+4yPqFwpG4wbDELMAkGA1UEBhMCQVUxEzARBgNVBAgTClNvbWUtU3RhdGUxEDAO
BgNVBAcTB0lNUEVSSUExHzAdBgNVBAoTFkNPTVBVVEVSUyBIT1VTRSBTLlIuTC4xFTATBgNVBAMTDD
gyLjEwNi44Mi40MoIJAO+y8RiO2FynMAwGA1UdEwQFMAMBAf8wDQYJKoZIhvcNAQEFBQADggEBAKpy
UBQYpUEUv4+XLhumYNturaDbGjBxx7xUrEOfwbdXZwPDFIyHJs2IKayg3YsKudztsDqA433zwrIzrN
sos8wgJ4oGGJi4Kc7nQfNG67a+ixCR51I5EY/B9uk9jbCwVDrFERIZq2ZzahOulmxDA42tXrbQ8WuE
wZMLExJQpRJDtn58wKXvfXc8Lr2DVaTl8pfLeQHLPNBTQol18fcjCj2YyGwsFYrrBzWNRWYrAi+GMS
ygwK9udbIOOJl4kSN5gNTbA/i+S3RplNlr45yas30H8EyLKha4PGtnjoH8+M0NUCcFLkHSyuvj2C1D
5aMmY3/ZtzLogsKpK1vQh8oezDo=
-----END CERTIFICATE-----
